mvpmarch-behavior/feederdata/p1uhs0_1247--p1udt104/Loads_XZ2_scale.dss
!  This code is generated by Xinyang with only primary. 

New Load.TR(R:P1UDT1-P1UDT1LV) Bus1= P1UDT1.1.2.3 Phase=3 Conn=Wye Model=1 kV=7.2 kW=660.0 kvar=139.2
New Load.TR(R:P1UDT2-P1UDT2LV) Bus1= P1UDT2.2 Phase=1 Conn=Wye Model=1 kV=7.2 kW=152.8 kvar=31.2
New Load.TR(R:P1UDT61-P1UDT61LV) Bus1= P1UDT61.1.2.3 Phase=3 Conn=Wye Model=1 kV=7.2 kW=2490.4 kvar=550.4
New Load.TR(R:P1UDT62-P1UDT62LV) Bus1= P1UDT62.1.2.3 Phase=3 Conn=Wye Model=1 kV=7.2 kW=587.2 kvar=127.2
New Load.TR(R:P1UDT104-P1UDT104LV) Bus1= P1UDT104.1 Phase=1 Conn=Wye Model=1 kV=7.2 kW=175.2 kvar=36.0
New Load.TR(R:P1UDT175-P1UDT175LV) Bus1= P1UDT175.1.2.3 Phase=3 Conn=Wye Model=1 kV=7.2 kW=1674.4 kvar=372.8
New Load.TR(R:P1UDT201-P1UDT201LV) Bus1= P1UDT201.1.2.3 Phase=3 Conn=Wye Model=1 kV=7.2 kW=1075.2 kvar=236.8
New Load.TR(R:P1UDT228-P1UDT228LV) Bus1= P1UDT228.1.2.3 Phase=3 Conn=Wye Model=1 kV=7.2 kW=2434.4 kvar=543.2
New Load.TR(R:P1UDT258-P1UDT258LV) Bus1= P1UDT258.1.2.3 Phase=3 Conn=Wye Model=1 kV=7.2 kW=502.4 kvar=107.2
New Load.TR(R:P1UDT259-P1UDT259LV) Bus1= P1UDT259.1.2.3 Phase=3 Conn=Wye Model=1 kV=7.2 kW=572.8 kvar=124.0
New Load.TR(R:P1UDT454-P1UDT454LV) Bus1= P1UDT454.1.2.3 Phase=3 Conn=Wye Model=1 kV=7.2 kW=2400.8 kvar=537.6
New Load.TR(R:P1UDT471-P1UDT471LV) Bus1= P1UDT471.2 Phase=1 Conn=Wye Model=1 kV=7.2 kW=71.2 kvar=14.4
